data_Magnesiowuestite

_chemical_name_common 'Magnesiowuestite'
_chemical_formula_sum 'Mg0.75 Fe0.25 O'
_symmetry_cell_setting cubic
_symmetry_space_group_name_H-M Fm-3m
_cell_formula_units_Z 4
_cell_length_a 4.24
_cell_length_b 4.24
_cell_length_c 4.24
_cell_angle_alpha 90
_cell_angle_beta 90
_cell_angle_gamma 90

loop_
_atom_site_label
_atom_site_type_symbol
_atom_site_occupancy
_atom_site_fract_x
_atom_site_fract_y
_atom_site_fract_z
_atom_site_B_iso_or_equiv
 Mg1 Mg2+ 0.75 0 0 0 0
 Fe1 Fe2+ 0.25 0 0 0 0
 O1 O2- 1 0.5 0.5 0.5 0 
